R2-25.00-1_OV.glm
// $Id: R2-25.00-1.glm 
// 24.9 kV feeder 
//********************************************* 
clock{ 
     timezone EST+8EDT; 
     timestamp '2000-01-01 0:00:00'; 
     stoptime '2000-01-01 1:00:00'; 

} 

#set profiler=1 
//********************************************* 
// modules 
module tape; 
module powerflow{ 
     solver_method NR; 
      default_maximum_voltage_error 1e-6;
}; 

//********************************************* 
object regulator:2048 { 
     name R2-25-00-1_reg_1; 
     from R2-25-00-1_node_324; 
     to R2-25-00-1_meter_73; 
     phases ABCN; 
     configuration feeder_reg_cfg; 
} 

object regulator_configuration:2049 { 
     name feeder_reg_cfg; 
     Control OUTPUT_VOLTAGE; 
     band_center 14975.0; 
     band_width 240; 
     connect_type WYE_WYE; 
     time_delay 30; 
     raise_taps 16; 
     lower_taps 16; 
     regulation 0.10; 
     tap_pos_A 0; 
     tap_pos_B 0; 
     tap_pos_C 0; 
} 

object capacitor:2042 { 
     name R2-25-00-1_cap_1; 
     phases ABCN; 
     pt_phase B; 
     parent R2-25-00-1_node_35; 
     phases_connected ABC; 
     control VOLT; 
     voltage_set_high 14500; 
     voltage_set_low 13500; 
     capacitor_A 0.4 MVAr; 
     capacitor_B 0.4 MVAr; 
     capacitor_C 0.4 MVAr; 
     control_level INDIVIDUAL; 
     time_delay 30.0; 
     dwell_time 30.0; 
     cap_nominal_voltage 14380; 
     nominal_voltage 14376.02; 

} 

object capacitor:2043 { 
     name R2-25-00-1_cap_2; 
     phases ABCN; 
     pt_phase B; 
     parent R2-25-00-1_node_104; 
     phases_connected ABC; 
     control VOLT; 
     voltage_set_high 14500; 
     voltage_set_low 13500; 
     capacitor_A 0.4 MVAr; 
     capacitor_B 0.4 MVAr; 
     capacitor_C 0.4 MVAr; 
     control_level INDIVIDUAL; 
     time_delay 30.0; 
     dwell_time 30.0; 
     cap_nominal_voltage 14380; 
     nominal_voltage 14376.02; 
} 

object capacitor:2044 { 
     name R2-25-00-1_cap_3; 
     phases ABCN; 
     pt_phase B; 
     parent R2-25-00-1_node_164; 
     phases_connected ABC; 
     control VOLT; 
     voltage_set_high 14500; 
     voltage_set_low 13500; 
     capacitor_A 0.4 MVAr; 
     capacitor_B 0.4 MVAr; 
     capacitor_C 0.4 MVAr; 
     control_level INDIVIDUAL; 
     time_delay 30.0; 
     dwell_time 30.0; 
     cap_nominal_voltage 14380; 
     nominal_voltage 14376.02; 
} 

object capacitor:2045 { 
     name R2-25-00-1_cap_4; 
     phases ABCN; 
     pt_phase B; 
     parent R2-25-00-1_node_265; 
     phases_connected ABC; 
     control VOLT; 
     voltage_set_high 14500; 
     voltage_set_low 13500; 
     capacitor_A 0.3 MVAr; 
     capacitor_B 0.3 MVAr; 
     capacitor_C 0.3 MVAr; 
     control_level INDIVIDUAL; 
     time_delay 30.0; 
     dwell_time 30.0; 
     cap_nominal_voltage 14380; 
     nominal_voltage 14376.02; 
} 

object capacitor:2046 { 
     name R2-25-00-1_cap_5; 
     phases ABCN; 
     pt_phase B; 
     parent R2-25-00-1_node_268; 
     phases_connected ABC; 
     control MANUAL; 
     capacitor_A 0.4 MVAr; 
     capacitor_B 0.4 MVAr; 
     capacitor_C 0.4 MVAr; 
     control_level INDIVIDUAL; 
     time_delay 30.0; 
     dwell_time 30.0; 
     cap_nominal_voltage 14380; 
     nominal_voltage 14376.02; 
} 

object fuse:1946 { 
     name R2-25-00-1_fuse_1; 
     phases ABCN; 
     from R2-25-00-1_node_241; 
     to R2-25-00-1_node_11; 
     current_limit 50000;// 650; 
     status CLOSED; 
} 

object fuse:1947 { 
     name R2-25-00-1_fuse_2; 
     phases ABCN; 
     from R2-25-00-1_node_18; 
     to R2-25-00-1_node_12; 
     current_limit 50000;// 800; 
     status CLOSED; 
} 

object fuse:1948 { 
     name R2-25-00-1_fuse_3; 
     phases ABCN; 
     from R2-25-00-1_node_128; 
     to R2-25-00-1_node_13; 
     current_limit 50000;// 500; 
     status CLOSED; 
} 

object fuse:1949 { 
     name R2-25-00-1_fuse_4; 
     phases AN; 
     from R2-25-00-1_node_284; 
     to R2-25-00-1_node_16; 
     current_limit 50000;// 400; 
     status CLOSED; 
} 

object fuse:1950 { 
     name R2-25-00-1_fuse_5; 
     phases BN; 
     from R2-25-00-1_node_191; 
     to R2-25-00-1_node_17; 
     current_limit 50000;// 1000; 
     status CLOSED; 
} 

object fuse:1951 { 
     name R2-25-00-1_fuse_6; 
     phases ABCN; 
     from R2-25-00-1_node_134; 
     to R2-25-00-1_node_20; 
     current_limit 50000;// 2000; 
     status CLOSED; 
} 

object fuse:1952 { 
     name R2-25-00-1_fuse_7; 
     phases AN; 
     from R2-25-00-1_node_236; 
     to R2-25-00-1_node_34; 
     current_limit 50000;// 500; 
     status CLOSED; 
} 

object fuse:1953 { 
     name R2-25-00-1_fuse_8; 
     phases ABCN; 
     from R2-25-00-1_node_141; 
     to R2-25-00-1_node_41; 
     current_limit 50000;// 650; 
     status CLOSED; 
} 

object fuse:1954 { 
     name R2-25-00-1_fuse_9; 
     phases CN; 
     from R2-25-00-1_node_48; 
     to R2-25-00-1_node_319; 
     current_limit 50000;// 500; 
     status CLOSED; 
} 

object fuse:1955 { 
     name R2-25-00-1_fuse_10; 
     phases CN; 
     from R2-25-00-1_node_237; 
     to R2-25-00-1_node_49; 
     current_limit 50000;// 500; 
     status CLOSED; 
} 

object fuse:1956 { 
     name R2-25-00-1_fuse_11; 
     phases ABCN; 
     from R2-25-00-1_node_248; 
     to R2-25-00-1_node_50; 
     current_limit 50000;// 1000; 
     status CLOSED; 
} 

object fuse:1957 { 
     name R2-25-00-1_fuse_12; 
     phases CN; 
     from R2-25-00-1_node_107; 
     to R2-25-00-1_node_52; 
     current_limit 50000;// 500; 
     status CLOSED; 
} 

object fuse:1958 { 
     name R2-25-00-1_fuse_13; 
     phases ABCN; 
     from R2-25-00-1_node_108; 
     to R2-25-00-1_node_61; 
     current_limit 50000;// 650; 
     status CLOSED; 
} 

object fuse:1959 { 
     name R2-25-00-1_fuse_14; 
     phases BN; 
     from R2-25-00-1_node_175; 
     to R2-25-00-1_node_65; 
     current_limit 50000;// 650; 
     status CLOSED; 
} 

object fuse:1960 { 
     name R2-25-00-1_fuse_15; 
     phases AN; 
     from R2-25-00-1_node_66; 
     to R2-25-00-1_node_320; 
     current_limit 50000;// 400; 
     status CLOSED; 
} 

object fuse:1961 { 
     name R2-25-00-1_fuse_16; 
     phases BN; 
     from R2-25-00-1_node_45; 
     to R2-25-00-1_node_72; 
     current_limit 50000;// 500; 
     status CLOSED; 
} 

object fuse:1962 { 
     name R2-25-00-1_fuse_17; 
     phases BN; 
     from R2-25-00-1_node_17; 
     to R2-25-00-1_node_77; 
     current_limit 50000;// 500; 
     status CLOSED; 
} 

object fuse:1963 { 
     name R2-25-00-1_fuse_18; 
     phases ABCN; 
     from R2-25-00-1_node_287; 
     to R2-25-00-1_node_87; 
     current_limit 50000;// 500; 
     status CLOSED; 
} 

object fuse:1964 { 
     name R2-25-00-1_fuse_19; 
     phases ABCN; 
     from R2-25-00-1_node_113; 
     to R2-25-00-1_node_101; 
     current_limit 50000;// 1000; 
     status CLOSED; 
} 

object fuse:1965 { 
     name R2-25-00-1_fuse_20; 
     phases ABCN; 
     from R2-25-00-1_node_223; 
     to R2-25-00-1_node_103; 
     current_limit 50000;// 1000; 
     status CLOSED; 
} 

object fuse:1966 { 
     name R2-25-00-1_fuse_21; 
     phases ABCN; 
     from R2-25-00-1_node_249; 
     to R2-25-00-1_node_118; 
     current_limit 50000;// 1000; 
     status CLOSED; 
} 

object fuse:1967 { 
     name R2-25-00-1_fuse_22; 
     phases ABCN; 
     from R2-25-00-1_node_222; 
     to R2-25-00-1_node_119; 
     current_limit 50000;// 1000; 
     status CLOSED; 
} 

object fuse:1968 { 
     name R2-25-00-1_fuse_23; 
     phases BN; 
     from R2-25-00-1_node_149; 
     to R2-25-00-1_node_124; 
     current_limit 50000;// 500; 
     status CLOSED; 
} 

object fuse:1969 { 
     name R2-25-00-1_fuse_24; 
     phases CN; 
     from R2-25-00-1_node_31; 
     to R2-25-00-1_node_125; 
     current_limit 50000;// 400; 
     status CLOSED; 
} 

object fuse:1970 { 
     name R2-25-00-1_fuse_25; 
     phases BN; 
     from R2-25-00-1_node_206; 
     to R2-25-00-1_node_126; 
     current_limit 50000;// 500; 
     status CLOSED; 
} 

object fuse:1971 { 
     name R2-25-00-1_fuse_26; 
     phases CN; 
     from R2-25-00-1_node_262; 
     to R2-25-00-1_node_132; 
     current_limit 50000;// 500; 
     status CLOSED; 
} 

object fuse:1972 { 
     name R2-25-00-1_fuse_27; 
     phases CN; 
     from R2-25-00-1_node_228; 
     to R2-25-00-1_node_142; 
     current_limit 50000;// 500; 
     status CLOSED; 
} 

object fuse:1973 { 
     name R2-25-00-1_fuse_28; 
     phases ABCN; 
     from R2-25-00-1_node_145; 
     to R2-25-00-1_node_146; 
     current_limit 50000;// 650; 
     status CLOSED; 
} 

object fuse:1974 { 
     name R2-25-00-1_fuse_29; 
     phases AN; 
     from R2-25-00-1_node_68; 
     to R2-25-00-1_node_147; 
     current_limit 50000;// 500; 
     status CLOSED; 
} 

object fuse:1975 { 
     name R2-25-00-1_fuse_30; 
     phases CN; 
     from R2-25-00-1_node_94; 
     to R2-25-00-1_node_148; 
     current_limit 50000;// 800; 
     status CLOSED; 
} 

object fuse:1976 { 
     name R2-25-00-1_fuse_31; 
     phases CN; 
     from R2-25-00-1_node_92; 
     to R2-25-00-1_node_155; 
     current_limit 50000;// 650; 
     status CLOSED; 
} 

object fuse:1977 { 
     name R2-25-00-1_fuse_32; 
     phases AN; 
     from R2-25-00-1_node_70; 
     to R2-25-00-1_node_158; 
     current_limit 50000;// 400; 
     status CLOSED; 
} 

object fuse:1978 { 
     name R2-25-00-1_fuse_33; 
     phases CN; 
     from R2-25-00-1_node_92; 
     to R2-25-00-1_node_177; 
     current_limit 50000;// 650; 
     status CLOSED; 
} 

object fuse:1979 { 
     name R2-25-00-1_fuse_34; 
     phases CN; 
     from R2-25-00-1_node_117; 
     to R2-25-00-1_node_181; 
     current_limit 50000;// 650; 
     status CLOSED; 
} 

object fuse:1980 { 
     name R2-25-00-1_fuse_35; 
     phases AN; 
     from R2-25-00-1_node_163; 
     to R2-25-00-1_node_192; 
     current_limit 50000;// 500; 
     status CLOSED; 
} 

object fuse:1981 { 
     name R2-25-00-1_fuse_36; 
     phases ABCN; 
     from R2-25-00-1_node_105; 
     to R2-25-00-1_node_193; 
     current_limit 50000;// 1000; 
     status CLOSED; 
} 

object fuse:1982 { 
     name R2-25-00-1_fuse_37; 
     phases CN; 
     from R2-25-00-1_node_62; 
     to R2-25-00-1_node_194; 
     current_limit 50000;// 400; 
     status CLOSED; 
} 

object fuse:1983 { 
     name R2-25-00-1_fuse_38; 
     phases CN; 
     from R2-25-00-1_node_306; 
     to R2-25-00-1_node_195; 
     current_limit 50000;// 500; 
     status CLOSED; 
} 

object fuse:1984 { 
     name R2-25-00-1_fuse_39; 
     phases BN; 
     from R2-25-00-1_node_27; 
     to R2-25-00-1_node_196; 
     current_limit 50000;// 1000; 
     status CLOSED; 
} 

object fuse:1985 { 
     name R2-25-00-1_fuse_40; 
     phases ABCN; 
     from R2-25-00-1_node_234; 
     to R2-25-00-1_node_201; 
     current_limit 50000;// 500; 
     status CLOSED; 
} 

object fuse:1986 { 
     name R2-25-00-1_fuse_41; 
     phases BN; 
     from R2-25-00-1_node_63; 
     to R2-25-00-1_node_215; 
     current_limit 50000;// 500; 
     status CLOSED; 
} 

object fuse:1987 { 
     name R2-25-00-1_fuse_42; 
     phases CN; 
     from R2-25-00-1_node_200; 
     to R2-25-00-1_node_231; 
     current_limit 50000;// 1000; 
     status CLOSED; 
} 

object fuse:1988 { 
     name R2-25-00-1_fuse_43; 
     phases ABCN; 
     from R2-25-00-1_node_204; 
     to R2-25-00-1_node_232; 
     current_limit 50000;// 1000; 
     status CLOSED; 
} 

object fuse:1989 { 
     name R2-25-00-1_fuse_44; 
     phases AN; 
     from R2-25-00-1_node_36; 
     to R2-25-00-1_node_238; 
     current_limit 50000;// 500; 
     status CLOSED; 
} 

object fuse:1990 { 
     name R2-25-00-1_fuse_45; 
     phases BN; 
     from R2-25-00-1_node_89; 
     to R2-25-00-1_node_245; 
     current_limit 50000;// 1000; 
     status CLOSED; 
} 

object fuse:1991 { 
     name R2-25-00-1_fuse_46; 
     phases BN; 
     from R2-25-00-1_node_217; 
     to R2-25-00-1_node_247; 
     current_limit 50000;// 650; 
     status CLOSED; 
} 

object fuse:1992 { 
     name R2-25-00-1_fuse_47; 
     phases AN; 
     from R2-25-00-1_node_70; 
     to R2-25-00-1_node_254; 
     current_limit 50000;// 400; 
     status CLOSED; 
} 

object fuse:1993 { 
     name R2-25-00-1_fuse_48; 
     phases CN; 
     from R2-25-00-1_node_227; 
     to R2-25-00-1_node_259; 
     current_limit 50000;// 650; 
     status CLOSED; 
} 

object fuse:1994 { 
     name R2-25-00-1_fuse_49; 
     phases ABCN; 
     from R2-25-00-1_node_296; 
     to R2-25-00-1_node_267; 
     current_limit 50000;// 1000; 
     status CLOSED; 
} 

object fuse:1995 { 
     name R2-25-00-1_fuse_50; 
     phases AN; 
     from R2-25-00-1_node_217; 
     to R2-25-00-1_node_270; 
     current_limit 50000;// 650; 
     status CLOSED; 
} 

object fuse:1996 { 
     name R2-25-00-1_fuse_51; 
     phases BN; 
     from R2-25-00-1_node_129; 
     to R2-25-00-1_node_292; 
     current_limit 50000;// 650; 
     status CLOSED; 
} 

object fuse:1997 { 
     name R2-25-00-1_fuse_52; 
     phases ABCN; 
     from R2-25-00-1_node_188; 
     to R2-25-00-1_node_299; 
     current_limit 50000;// 1000; 
     status CLOSED; 
} 

object fuse:1998 { 
     name R2-25-00-1_fuse_53; 
     phases CN; 
     from R2-25-00-1_node_49; 
     to R2-25-00-1_node_301; 
     current_limit 50000;// 400; 
     status CLOSED; 
} 

object fuse:1999 { 
     name R2-25-00-1_fuse_54; 
     phases ABCN; 
     from R2-25-00-1_node_293; 
     to R2-25-00-1_node_303; 
     current_limit 50000;// 500; 
     status CLOSED; 
} 

object fuse:2000 { 
     name R2-25-00-1_fuse_55; 
     phases CN; 
     from R2-25-00-1_node_42; 
     to R2-25-00-1_node_307; 
     current_limit 50000;// 300; 
     status CLOSED; 
} 

object fuse:2001 { 
     name R2-25-00-1_fuse_56; 
     phases BN; 
     from R2-25-00-1_node_242; 
     to R2-25-00-1_node_308; 
     current_limit 50000;// 500; 
     status CLOSED; 
} 

object fuse:2002 { 
     name R2-25-00-1_fuse_57; 
     phases AN; 
     from R2-25-00-1_node_116; 
     to R2-25-00-1_node_321; 
     current_limit 50000;// 500; 
     status CLOSED; 
} 

object line_configuration:21 { 
     conductor_A underground_line_conductor:2; 
     conductor_N underground_line_conductor:2; 
     spacing line_spacing:14; 
} 

object line_configuration:22 { 
     conductor_A overhead_line_conductor:3; 
     conductor_B overhead_line_conductor:3; 
     conductor_C overhead_line_conductor:3; 
     conductor_N overhead_line_conductor:3; 
     spacing line_spacing:15; 
} 

object line_configuration:23 { 
     conductor_A underground_line_conductor:4; 
     conductor_N underground_line_conductor:4; 
     spacing line_spacing:14; 
} 

object line_configuration:24 { 
     conductor_A overhead_line_conductor:3; 
     conductor_B overhead_line_conductor:3; 
     conductor_C overhead_line_conductor:3; 
     conductor_N overhead_line_conductor:3; 
     spacing line_spacing:15; 
} 

object line_configuration:25 { 
     conductor_A underground_line_conductor:5; 
     conductor_B underground_line_conductor:5; 
     conductor_C underground_line_conductor:5; 
     conductor_N underground_line_conductor:5; 
     spacing line_spacing:16; 
} 

object line_configuration:26 { 
     conductor_A overhead_line_conductor:6; 
     conductor_B overhead_line_conductor:6; 
     conductor_C overhead_line_conductor:6; 
     conductor_N overhead_line_conductor:6; 
     spacing line_spacing:16; 
} 

object line_configuration:27 { 
     conductor_B overhead_line_conductor:7; 
     conductor_N overhead_line_conductor:7; 
     spacing line_spacing:17; 
} 

object line_configuration:28 { 
     conductor_C underground_line_conductor:2; 
     conductor_N underground_line_conductor:2; 
     spacing line_spacing:18; 
} 

object line_configuration:29 { 
     conductor_A overhead_line_conductor:7; 
     conductor_B overhead_line_conductor:7; 
     conductor_C overhead_line_conductor:7; 
     conductor_N overhead_line_conductor:7; 
     spacing line_spacing:15; 
} 

object line_configuration:30 { 
     conductor_B underground_line_conductor:4; 
     conductor_N underground_line_conductor:4; 
     spacing line_spacing:19; 
} 

object line_configuration:31 { 
     conductor_C overhead_line_conductor:7; 
     conductor_N overhead_line_conductor:7; 
     spacing line_spacing:20; 
} 

object line_configuration:32 { 
     conductor_B underground_line_conductor:2; 
     conductor_N underground_line_conductor:2; 
     spacing line_spacing:19; 
} 

object line_configuration:33 { 
     conductor_A underground_line_conductor:2; 
     conductor_N underground_line_conductor:2; 
     spacing line_spacing:14; 
} 

object line_configuration:34 { 
     conductor_A overhead_line_conductor:8; 
     conductor_B overhead_line_conductor:8; 
     conductor_C overhead_line_conductor:8; 
     conductor_N overhead_line_conductor:8; 
     spacing line_spacing:15; 
} 

object line_configuration:35 { 
     conductor_A overhead_line_conductor:8; 
     conductor_B overhead_line_conductor:8; 
     conductor_C overhead_line_conductor:8; 
     conductor_N overhead_line_conductor:8; 
     spacing line_spacing:15; 
} 

object line_configuration:36 { 
     conductor_A underground_line_conductor:4; 
     conductor_B underground_line_conductor:4; 
     conductor_C underground_line_conductor:4; 
     conductor_N underground_line_conductor:4; 
     spacing line_spacing:16; 
} 

object line_configuration:37 { 
     conductor_C underground_line_conductor:4; 
     conductor_N underground_line_conductor:4; 
     spacing line_spacing:18; 
} 

object line_configuration:38 { 
     conductor_C overhead_line_conductor:9; 
     conductor_N overhead_line_conductor:9; 
     spacing line_spacing:20; 
} 

object line_configuration:39 { 
     conductor_C underground_line_conductor:2; 
     conductor_N underground_line_conductor:2; 
     spacing line_spacing:18; 
} 

object line_configuration:40 { 
     conductor_A overhead_line_conductor:10; 
     conductor_B overhead_line_conductor:10; 
     conductor_C overhead_line_conductor:10; 
     conductor_N overhead_line_conductor:10; 
     spacing line_spacing:15; 
} 

object line_configuration:41 { 
     conductor_A overhead_line_conductor:7; 
     conductor_B overhead_line_conductor:7; 
     conductor_C overhead_line_conductor:7; 
     conductor_N overhead_line_conductor:7; 
     spacing line_spacing:15; 
} 

object line_configuration:42 { 
     conductor_C overhead_line_conductor:11; 
     conductor_N overhead_line_conductor:11; 
     spacing line_spacing:20; 
} 

object line_configuration:43 { 
     conductor_C overhead_line_conductor:10; 
     conductor_N overhead_line_conductor:10; 
     spacing line_spacing:20; 
} 

object line_configuration:44 { 
     conductor_C overhead_line_conductor:11; 
     conductor_N overhead_line_conductor:11; 
     spacing line_spacing:20; 
} 

object line_configuration:45 { 
     conductor_B overhead_line_conductor:8; 
     conductor_N overhead_line_conductor:8; 
     spacing line_spacing:17; 
} 

object line_configuration:46 { 
     conductor_A overhead_line_conductor:8; 
     conductor_B overhead_line_conductor:8; 
     conductor_C overhead_line_conductor:8; 
     conductor_N overhead_line_conductor:8; 
     spacing line_spacing:15; 
} 

object line_configuration:47 { 
     conductor_A overhead_line_conductor:6; 
     conductor_B overhead_line_conductor:6; 
     conductor_C overhead_line_conductor:6; 
     conductor_N overhead_line_conductor:6; 
     spacing line_spacing:15; 
} 

object line_configuration:48 { 
     conductor_B overhead_line_conductor:6; 
     conductor_N overhead_line_conductor:6; 
     spacing line_spacing:17; 
} 

object line_configuration:49 { 
     conductor_B overhead_line_conductor:10; 
     conductor_N overhead_line_conductor:10; 
     spacing line_spacing:17; 
} 

object line_configuration:50 { 
     conductor_C overhead_line_conductor:12; 
     conductor_N overhead_line_conductor:12; 
     spacing line_spacing:20; 
} 

object line_configuration:51 { 
     conductor_A overhead_line_conductor:3; 
     conductor_B overhead_line_conductor:3; 
     conductor_C overhead_line_conductor:3; 
     conductor_N overhead_line_conductor:3; 
     spacing line_spacing:15; 
} 

object line_configuration:52 { 
     conductor_A overhead_line_conductor:6; 
     conductor_B overhead_line_conductor:6; 
     conductor_C overhead_line_conductor:6; 
     conductor_N overhead_line_conductor:6; 
     spacing line_spacing:15; 
} 

object line_configuration:53 { 
     conductor_A overhead_line_conductor:13; 
     conductor_B overhead_line_conductor:13; 
     conductor_C overhead_line_conductor:13; 
     conductor_N overhead_line_conductor:13; 
     spacing line_spacing:15; 
} 

object line_spacing:14 { 
     distance_AN 6.0 in; 
} 

object line_spacing:15 { 
     distance_AB 59.0 in; 
     distance_BC 59.0 in; 
     distance_AC 59.0 in; 
     distance_AN 59.0 in; 
     distance_BN 59.0 in; 
     distance_CN 59.0 in; 
} 

object line_spacing:16 { 
     distance_AB 6.0 in; 
     distance_BC 6.0 in; 
     distance_AC 6.0 in; 
     distance_AN 6.0 in; 
     distance_BN 6.0 in; 
     distance_CN 6.0 in; 
} 

object line_spacing:17 { 
     distance_BN 53.0 in; 
} 

object line_spacing:18 { 
     distance_CN 6.0 in; 
} 

object line_spacing:19 { 
     distance_BN 6.0 in; 
} 

object line_spacing:20 { 
     distance_CN 53.0 in; 
} 

object load:377 { 
     name R2-25-00-1_load_1; 
     parent R2-25-00-1_meter_1; 
     phases ABCN; 
     voltage_A 14376.02+0.0j; 
     voltage_B -7188.01-12450j; 
     voltage_C -7188.01+12450j; 
     constant_power_A 410939.41282+240675.62347j;
     constant_power_B 400953.94200000004+245840.4472j;
     constant_power_C 405241.11669+239495.05782999998j;
     nominal_voltage 480; 
     load_class C; 
} 

object load:378 { 
     name R2-25-00-1_load_2; 
     parent R2-25-00-1_meter_2; 
     phases ABCN; 
     voltage_A 14376.02+0.0j; 
     voltage_B -7188.01-12450j; 
     voltage_C -7188.01+12450j; 
     constant_power_A 618869.41282+397275.62347j;
     constant_power_B 608883.942+402440.4472j;
     constant_power_C 613171.1166899999+396095.05783j;
     nominal_voltage 480; 
     load_class C; 
} 

object load:379 { 
     name R2-25-00-1_load_3; 
     parent R2-25-00-1_meter_3; 
     phases ABCN; 
     voltage_A 14376.02+0.0j; 
     voltage_B -7188.01-12450j; 
     voltage_C -7188.01+12450j; 
     constant_power_A 74491.67708+18010.09301j;
     constant_power_B 68999.6681+20850.74596j;
     constant_power_C 71357.61430999999+17360.78185j;
     nominal_voltage 480; 
     load_class C; 
} 

object load:380 { 
     name R2-25-00-1_load_4; 
     parent R2-25-00-1_meter_4; 
     phases ABCN; 
     voltage_A 14376.02+0.0j; 
     voltage_B -7188.01-12450j; 
     voltage_C -7188.01+12450j; 
     constant_power_A 67719.70641+16372.81159j;
     constant_power_B 62726.971000000005+18955.223599999998j;
     constant_power_C 64870.55849+15782.529059999999j;
     nominal_voltage 480; 
     load_class C; 
} 

object load:381 { 
     name R2-25-00-1_load_5; 
     parent R2-25-00-1_meter_5; 
     phases ABCN; 
     voltage_A 14376.02+0.0j; 
     voltage_B -7188.01-12450j; 
     voltage_C -7188.01+12450j; 
     constant_power_A 33859.85306+8186.40594j;
     constant_power_B 31363.485500000003+9477.611799999999j;
     constant_power_C 32435.2791+7891.2645299999995j;
     nominal_voltage 480; 
     load_class C; 
} 

object load:382 { 
     name R2-25-00-1_load_6; 
     parent R2-25-00-1_meter_6; 
     phases CN; 
     voltage_C -7188.01+12450j; 
     constant_power_C 12974.111640000001+3156.50587j;
     nominal_voltage 480; 
     load_class A; 
} 

object load:383 { 
     name R2-25-00-1_load_7; 
     parent R2-25-00-1_meter_7; 
     phases ABCN; 
     voltage_A 14376.02+0.0j; 
     voltage_B -7188.01-12450j; 
     voltage_C -7188.01+12450j; 
     constant_power_A 203000+152830j;
     constant_power_B 203000+152830j;
     constant_power_C 203000+152830j;
     nominal_voltage 480; 
     load_class C; 
} 

object load:384 { 
     name R2-25-00-1_load_8; 
     parent R2-25-00-1_meter_8; 
     phases CN; 
     voltage_C -7188.01+12450j; 
     constant_power_C 32435.2791+7891.2645299999995j;
     nominal_voltage 480; 
     load_class A; 
} 

object load:385 { 
     name R2-25-00-1_load_9; 
     parent R2-25-00-1_meter_9; 
     phases ABCN; 
     voltage_A 14376.02+0.0j; 
     voltage_B -7188.01-12450j; 
     voltage_C -7188.01+12450j; 
     constant_power_A 173929.85306+112586.40594j;
     constant_power_B 171433.4855+113877.6118j;
     constant_power_C 172505.27909999999+112291.26452999999j;
     nominal_voltage 480; 
     load_class C; 
} 

object load:386 { 
     name R2-25-00-1_load_10; 
     parent R2-25-00-1_meter_10; 
     phases CN; 
     voltage_C -7188.01+12450j; 
     constant_power_C 116767.00504999999+28408.55196j;
     nominal_voltage 480; 
     load_class A; 
} 

object load:387 { 
     name R2-25-00-1_load_11; 
     parent R2-25-00-1_meter_11; 
     phases ABCN; 
     voltage_A 14376.02+0.0j; 
     voltage_B -7188.01-12450j; 
     voltage_C -7188.01+12450j; 
     constant_power_A 169299.26588+40932.02912j;
     constant_power_B 156817.4275+47388.058999999994j;
     constant_power_C 162176.39608+39456.32236j;
     nominal_voltage 480; 
     load_class C; 
} 

object load:388 { 
     name R2-25-00-1_load_12; 
     parent R2-25-00-1_meter_12; 
     phases BN; 
     voltage_B -7188.01-12450j; 
     constant_power_B 31363.485500000003+9477.611799999999j;
     nominal_voltage 480; 
     load_class C; 
} 

object load:389 { 
     name R2-25-00-1_load_13; 
     parent R2-25-00-1_meter_13; 
     phases ABCN; 
     voltage_A 14376.02+0.0j; 
     voltage_B -7188.01-12450j; 
     voltage_C -7188.01+12450j; 
     constant_power_A 11286.613239999999+2728.80082j;
     constant_power_B 10454.49101+3159.20258j;
     constant_power_C 10811.75535+2630.42035j;
     nominal_voltage 480; 
     load_class C; 
} 

object load:390 { 
     name R2-25-00-1_load_14; 
     parent R2-25-00-1_meter_14; 
     phases CN; 
     voltage_C -7188.01+12450j; 
     constant_power_C 12974.111640000001+3156.50587j;
     nominal_voltage 480; 
     load_class A; 
} 

object load:391 { 
     name R2-25-00-1_load_15; 
     parent R2-25-00-1_meter_15; 
     phases ABCN; 
     voltage_A 14376.02+0.0j; 
     voltage_B -7188.01-12450j; 
     voltage_C -7188.01+12450j; 
     constant_power_A 101579.55947+24559.217529999998j;
     constant_power_B 94090.4565+28432.835399999996j;
     constant_power_C 97305.83759+23673.7933j;
     nominal_voltage 480; 
     load_class C; 
} 

object load:392 { 
     name R2-25-00-1_load_16; 
     parent R2-25-00-1_meter_16; 
     phases ABCN; 
     voltage_A 14376.02+0.0j; 
     voltage_B -7188.01-12450j; 
     voltage_C -7188.01+12450j; 
     constant_power_A 101579.55947+24559.217529999998j;
     constant_power_B 94090.4565+28432.835399999996j;
     constant_power_C 97305.83759+23673.7933j;
     nominal_voltage 480; 
     load_class C; 
} 

object load:393 { 
     name R2-25-00-1_load_17; 
     parent R2-25-00-1_meter_17; 
     phases CN; 
     voltage_C -7188.01+12450j; 
     constant_power_C 77844.67013+18939.03464j;
     nominal_voltage 480; 
     load_class A; 
} 

object load:394 { 
     name R2-25-00-1_load_18; 
     parent R2-25-00-1_meter_18; 
     phases ABCN; 
     voltage_A 14376.02+0.0j; 
     voltage_B -7188.01-12450j; 
     voltage_C -7188.01+12450j; 
     constant_power_A 38374.45503+9277.91577j;
     constant_power_B 35545.24171+10741.28071j;
     constant_power_C 36759.93977+8943.42252j;
     nominal_voltage 480; 
     load_class C; 
} 

object load:395 { 
     name R2-25-00-1_load_19; 
     parent R2-25-00-1_meter_19; 
     phases ABCN; 
     voltage_A 14376.02+0.0j; 
     voltage_B -7188.01-12450j; 
     voltage_C -7188.01+12450j; 
     constant_power_A 67719.70641+16372.81159j;
     constant_power_B 62726.971000000005+18955.223599999998j;
     constant_power_C 64870.55849+15782.529059999999j;
     nominal_voltage 480; 
     load_class C; 
} 

object load:396 { 
     name R2-25-00-1_load_20; 
     parent R2-25-00-1_meter_20; 
     phases ABCN; 
     voltage_A 14376.02+0.0j; 
     voltage_B -7188.01-12450j; 
     voltage_C -7188.01+12450j; 
     constant_power_A 9029.29877+2183.0425699999996j;
     constant_power_B 8363.60029+2527.3645j;
     constant_power_C 8649.41211+2104.33831j;
     nominal_voltage 480; 
     load_class C; 
} 

object load:397 { 
     name R2-25-00-1_load_21; 
     parent R2-25-00-1_meter_21; 
     phases ABCN; 
     voltage_A 14376.02+0.0j; 
     voltage_B -7188.01-12450j; 
     voltage_C -7188.01+12450j; 
     constant_power_A 31602.48436+7640.634639999999j;
     constant_power_B 29272.54461+8845.75835j;
     constant_power_C 30272.883949999996+7365.16973j;
     nominal_voltage 480; 
     load_class C; 
} 

object load:398 { 
     name R2-25-00-1_load_22; 
     parent R2-25-00-1_meter_22; 
     phases CN; 
     voltage_C -7188.01+12450j; 
     constant_power_C 58383.50267+14204.27598j;
     nominal_voltage 480; 
     load_class A; 
} 

object load:399 { 
     name R2-25-00-1_load_23; 
     parent R2-25-00-1_meter_23; 
     phases ABCN; 
     voltage_A 14376.02+0.0j; 
     voltage_B -7188.01-12450j; 
     voltage_C -7188.01+12450j; 
     constant_power_A 101579.55947+24559.217529999998j;
     constant_power_B 94090.4565+28432.835399999996j;
     constant_power_C 97305.83759+23673.7933j;
     nominal_voltage 480; 
     load_class C; 
} 

object load:400 { 
     name R2-25-00-1_load_24; 
     parent R2-25-00-1_meter_24; 
     phases ABCN; 
     voltage_A 14376.02+0.0j; 
     voltage_B -7188.01-12450j; 
     voltage_C -7188.01+12450j; 
     constant_power_A 503745.91201+36741.184339j;
     constant_power_B 502248.0913+36818.656707999995j;
     constant_power_C 502891.16745999997+36723.475866j;
     nominal_voltage 480; 
     load_class C; 
} 

object load:401 { 
     name R2-25-00-1_load_25; 
     parent R2-25-00-1_meter_25; 
     phases ABCN; 
     voltage_A 14376.02+0.0j; 
     voltage_B -7188.01-12450j; 
     voltage_C -7188.01+12450j; 
     constant_power_A 13543.94134+3274.5622599999997j;
     constant_power_B 12545.394199999999+3791.0447200000003j;
     constant_power_C 12974.111640000001+3156.50587j;
     nominal_voltage 480; 
     load_class C; 
} 

object load:402 { 
     name R2-25-00-1_load_26; 
     parent R2-25-00-1_meter_26; 
     phases ABCN; 
     voltage_A 14376.02+0.0j; 
     voltage_B -7188.01-12450j; 
     voltage_C -7188.01+12450j; 
     constant_power_A 22573.28071+5457.614689999999j;
     constant_power_B 20909.032189999998+6318.420529999999j;
     constant_power_C 21623.562609999997+5260.853459999999j;
     nominal_voltage 480; 
     load_class C; 
} 

object load:403 { 
     name R2-25-00-1_load_27; 
     parent R2-25-00-1_meter_27; 
     phases ABCN; 
     voltage_A 14376.02+0.0j; 
     voltage_B -7188.01-12450j; 
     voltage_C -7188.01+12450j; 
     constant_power_A 30671.47126+17217.88667j;
     constant_power_B 29842.677069999998+17646.56699j;
     constant_power_C 30198.512579999995+17119.89973j;
     nominal_voltage 480; 
     load_class C; 
} 

object load:404 { 
     name R2-25-00-1_load_28; 
     parent R2-25-00-1_meter_28; 
     phases ABCN; 
     voltage_A 14376.02+0.0j; 
     voltage_B -7188.01-12450j; 
     voltage_C -7188.01+12450j; 
     constant_power_A 33859.85306+8186.40594j;
     constant_power_B 31363.485500000003+9477.611799999999j;
     constant_power_C 32435.2791+7891.2645299999995j;
     nominal_voltage 480; 
     load_class C; 
} 

object load:405 { 
     name R2-25-00-1_load_29; 
     parent R2-25-00-1_meter_29; 
     phases CN; 
     voltage_C -7188.01+12450j; 
     constant_power_C 110279.94923000001+26830.299170000002j;
     nominal_voltage 480; 
     load_class A; 
} 

object load:406 { 
     name R2-25-00-1_load_30; 
     parent R2-25-00-1_meter_30; 
     phases ABCN; 
     voltage_A 14376.02+0.0j; 
     voltage_B -7188.01-12450j; 
     voltage_C -7188.01+12450j; 
     constant_power_A 284279.55947+160859.21753j;
     constant_power_B 276790.4565+164732.83539999998j;
     constant_power_C 280005.83759+159973.7933j;
     nominal_voltage 480; 
     load_class C; 
} 

object load:407 { 
     name R2-25-00-1_load_31; 
     parent R2-25-00-1_meter_31; 
     phases ABCN; 
     voltage_A 14376.02+0.0j; 
     voltage_B -7188.01-12450j; 
     voltage_C -7188.01+12450j; 
     constant_power_A 101579.55947+24559.217529999998j;
     constant_power_B 94090.4565+28432.835399999996j;
     constant_power_C 97305.83759+23673.7933j;
     nominal_voltage 480; 
     load_class C; 
} 

object load:408 { 
     name R2-25-00-1_load_32; 
     parent R2-25-00-1_meter_32; 
     phases AN; 
     voltage_A 14376.02+0.0j; 
     constant_power_A 101579.55947+24559.217529999998j;
     nominal_voltage 480; 
     load_class A; 
} 

object load:409 { 
     name R2-25-00-1_load_33; 
     parent R2-25-00-1_meter_33; 
     phases CN; 
     voltage_C -7188.01+12450j; 
     constant_power_C 103792.89341+25252.046379999996j;
     nominal_voltage 480; 
     load_class A; 
} 

object load:410 { 
     name R2-25-00-1_load_34; 
     parent R2-25-00-1_meter_34; 
     phases ABCN; 
     voltage_A 14376.02+0.0j; 
     voltage_B -7188.01-12450j; 
     voltage_C -7188.01+12450j; 
     constant_power_A 33859.85306+8186.40594j;
     constant_power_B 31363.485500000003+9477.611799999999j;
     constant_power_C 32435.2791+7891.2645299999995j;
     nominal_voltage 480; 
     load_class C; 
} 

object load:411 { 
     name R2-25-00-1_load_35; 
     parent R2-25-00-1_meter_35; 
     phases CN; 
     voltage_C -7188.01+12450j; 
     constant_power_C 32435.2791+7891.2645299999995j;
     nominal_voltage 480; 
     load_class A; 
} 

object load:412 { 
     name R2-25-00-1_load_36; 
     parent R2-25-00-1_meter_36; 
     phases ABCN; 
     voltage_A 14376.02+0.0j; 
     voltage_B -7188.01-12450j; 
     voltage_C -7188.01+12450j; 
     constant_power_A 749070+562600j;
     constant_power_B 749070+562600j;
     constant_power_C 749070+562600j;
     nominal_voltage 480; 
     load_class C; 
} 

object load:413 { 
     name R2-25-00-1_load_37; 
     parent R2-25-00-1_meter_37; 
     phases ABCN; 
     voltage_A 14376.02+0.0j; 
     voltage_B -7188.01-12450j; 
     voltage_C -7188.01+12450j; 
     constant_power_A 466900+350900j;
     constant_power_B 466900+350900j;
     constant_power_C 466900+350900j;
     nominal_voltage 480; 
     load_class C; 
} 

object load:414 { 
     name R2-25-00-1_load_38; 
     parent R2-25-00-1_meter_38; 
     phases ABCN; 
     voltage_A 14376.02+0.0j; 
     voltage_B -7188.01-12450j; 
     voltage_C -7188.01+12450j; 
     constant_power_A 22573.28071+5457.614689999999j;
     constant_power_B 20909.032189999998+6318.420529999999j;
     constant_power_C 21623.562609999997+5260.853459999999j;
     nominal_voltage 480; 
     load_class A; 
} 

object load:415 { 
     name R2-25-00-1_load_39; 
     parent R2-25-00-1_meter_39; 
     phases CN; 
     voltage_C -7188.01+12450j; 
     constant_power_C 32435.2791+7891.2645299999995j;
     nominal_voltage 480; 
     load_class A; 
} 

object load:416 { 
     name R2-25-00-1_load_40; 
     parent R2-25-00-1_meter_40; 
     phases ABCN; 
     voltage_A 14376.02+0.0j; 
     voltage_B -7188.01-12450j; 
     voltage_C -7188.01+12450j; 
     constant_power_A 145000+109330j;
     constant_power_B 145000+109330j;
     constant_power_C 145000+109330j;
     nominal_voltage 480; 
     load_class C; 
} 

object load:417 { 
     name R2-25-00-1_load_41; 
     parent R2-25-00-1_meter_41; 
     phases CN; 
     voltage_C -7188.01+12450j; 
     constant_power_C 12974.111640000001+3156.50587j;
     nominal_voltage 480; 
     load_class A; 
} 

object load:418 { 
     name R2-25-00-1_load_42; 
     parent R2-25-00-1_meter_42; 
     phases CN; 
     voltage_C -7188.01+12450j; 
     constant_power_C 84331.72595+20517.28772j;
     nominal_voltage 480; 
     load_class A; 
} 

object load:419 { 
     name R2-25-00-1_load_43; 
     parent R2-25-00-1_meter_43; 
     phases ABCN; 
     voltage_A 14376.02+0.0j; 
     voltage_B -7188.01-12450j; 
     voltage_C -7188.01+12450j; 
     constant_power_A 33859.85306+8186.40594j;
     constant_power_B 31363.485500000003+9477.611799999999j;
     constant_power_C 32435.2791+7891.2645299999995j;
     nominal_voltage 480; 
     load_class C; 
} 

object load:420 { 
     name R2-25-00-1_load_44; 
     parent R2-25-00-1_meter_44; 
     phases ABCN; 
     voltage_A 14376.02+0.0j; 
     voltage_B -7188.01-12450j; 
     voltage_C -7188.01+12450j; 
     constant_power_A 645830+484300j;
     constant_power_B 645830+484300j;
     constant_power_C 645830+484300j;
     nominal_voltage 480; 
     load_class A; 
} 

object load:421 { 
     name R2-25-00-1_load_45; 
     parent R2-25-00-1_meter_45; 
     phases ABCN; 
     voltage_A 14376.02+0.0j; 
     voltage_B -7188.01-12450j; 
     voltage_C -7188.01+12450j; 
     constant_power_A 67719.70641+16372.81159j;
     constant_power_B 62726.971000000005+18955.223599999998j;
     constant_power_C 64870.55849+15782.529059999999j;
     nominal_voltage 480; 
     load_class C; 
} 

object load:422 { 
     name R2-25-00-1_load_46; 
     parent R2-25-00-1_meter_46; 
     phases ABCN; 
     voltage_A 14376.02+0.0j; 
     voltage_B -7188.01-12450j; 
     voltage_C -7188.01+12450j; 
     constant_power_A 135439.41282+32745.623470000002j;
     constant_power_B 125453.94200000001+37910.447199999995j;
     constant_power_C 129741.11668999998+31565.057829999998j;
     nominal_voltage 480; 
     load_class C; 
} 

object load:423 { 
     name R2-25-00-1_load_47; 
     parent R2-25-00-1_meter_47; 
     phases CN; 
     voltage_C -7188.01+12450j; 
     constant_power_C 77844.67013+18939.03464j;
     nominal_voltage 480; 
     load_class A; 
} 

object load:424 { 
     name R2-25-00-1_load_48; 
     parent R2-25-00-1_meter_48; 
     phases ABCN; 
     voltage_A 14376.02+0.0j; 
     voltage_B -7188.01-12450j; 
     voltage_C -7188.01+12450j; 
     constant_power_A 22573.28071+5457.614689999999j;
     constant_power_B 20909.032189999998+6318.420529999999j;
     constant_power_C 21623.562609999997+5260.853459999999j;
     nominal_voltage 480; 
     load_class C; 
} 

object load:425 { 
     name R2-25-00-1_load_49; 
     parent R2-25-00-1_meter_49; 
     phases ABCN; 
     voltage_A 14376.02+0.0j; 
     voltage_B -7188.01-12450j; 
     voltage_C -7188.01+12450j; 
     constant_power_A 40631.823730000004+9823.68707j;
     constant_power_B 37636.1826+11373.13416j;
     constant_power_C 38922.33492+9469.51732j;
     nominal_voltage 480; 
     load_class C; 
} 

object load:426 { 
     name R2-25-00-1_load_50; 
     parent R2-25-00-1_meter_50; 
     phases CN; 
     voltage_C -7188.01+12450j; 
     constant_power_C 51896.44684999999+12626.023189999998j;
     nominal_voltage 480; 
     load_class A; 
} 

object load:427 { 
     name R2-25-00-1_load_51; 
     parent R2-25-00-1_meter_51; 
     phases ABCN; 
     voltage_A 14376.02+0.0j; 
     voltage_B -7188.01-12450j; 
     voltage_C -7188.01+12450j; 
     constant_power_A 677197.06381+163728.11706j;
     constant_power_B 627269.71029+189552.23599999998j;
     constant_power_C 648705.5840299999+157825.28944j;
     nominal_voltage 480; 
     load_class C; 
} 

object load:428 { 
     name R2-25-00-1_load_52; 
     parent R2-25-00-1_meter_52; 
     phases CN; 
     voltage_C -7188.01+12450j; 
     constant_power_C 71357.61430999999+17360.78185j;
     nominal_voltage 480; 
     load_class A; 
} 

object load:429 { 
     name R2-25-00-1_load_53; 
     parent R2-25-00-1_meter_53; 
     phases ABCN; 
     voltage_A 14376.02+0.0j; 
     voltage_B -7188.01-12450j; 
     voltage_C -7188.01+12450j; 
     constant_power_A 171557.04087+41477.89873j;
     constant_power_B 158908.74481+48020.026130000006j;
     constant_power_C 164339.18041+39982.51199j;
     nominal_voltage 480; 
     load_class C; 
} 

object load:430 { 
     name R2-25-00-1_load_54; 
     parent R2-25-00-1_meter_54; 
     phases ABCN; 
     voltage_A 14376.02+0.0j; 
     voltage_B -7188.01-12450j; 
     voltage_C -7188.01+12450j; 
     constant_power_A 159500+118900j;
     constant_power_B 159500+118900j;
     constant_power_C 159500+118900j;
     nominal_voltage 480; 
     load_class A; 
} 

object load:431 { 
     name R2-25-00-1_load_55; 
     parent R2-25-00-1_meter_55; 
     phases CN; 
     voltage_C -7188.01+12450j; 
     constant_power_C 32435.2791+7891.2645299999995j;
     nominal_voltage 480; 
     load_class A; 
} 

object load:432 { 
     name R2-25-00-1_load_56; 
     parent R2-25-00-1_meter_56; 
     phases ABCN; 
     voltage_A 14376.02+0.0j; 
     voltage_B -7188.01-12450j; 
     voltage_C -7188.01+12450j; 
     constant_power_A 144130+107300j;
     constant_power_B 144130+107300j;
     constant_power_C 144130+107300j;
     nominal_voltage 480; 
     load_class C; 
} 

object load:433 { 
     name R2-25-00-1_load_57; 
     parent R2-25-00-1_meter_57; 
     phases CN; 
     voltage_C -7188.01+12450j; 
     constant_power_C 90818.78177+22095.54051j;
     nominal_voltage 480; 
     load_class A; 
} 

object load:434 { 
     name R2-25-00-1_load_58; 
     parent R2-25-00-1_meter_58; 
     phases CN; 
     voltage_C -7188.01+12450j; 
     constant_power_C 32435.2791+7891.2645299999995j;
     nominal_voltage 480; 
     load_class C; 
} 

object load:435 { 
     name R2-25-00-1_load_59; 
     parent R2-25-00-1_meter_59; 
     phases ABCN; 
     voltage_A 14376.02+0.0j; 
     voltage_B -7188.01-12450j; 
     voltage_C -7188.01+12450j; 
     constant_power_A 1708100+1058500j;
     constant_power_B 1708100+1058500j;
     constant_power_C 1708100+1058500j;
     nominal_voltage 480; 
     load_class C; 
} 

object load:436 { 
     name R2-25-00-1_load_60; 
     parent R2-25-00-1_meter_60; 
     phases CN; 
     voltage_C -7188.01+12450j; 
     constant_power_C 58383.50267+14204.27598j;
     nominal_voltage 480; 
     load_class A; 
} 

object load:437 { 
     name R2-25-00-1_load_61; 
     parent R2-25-00-1_meter_61; 
     phases ABCN; 
     voltage_A 14376.02+0.0j; 
     voltage_B -7188.01-12450j; 
     voltage_C -7188.01+12450j; 
     constant_power_A 53171.970669999995+3643.7281129999997j;
     constant_power_B 52672.6971+3669.552236j;
     constant_power_C 52887.055819999994+3637.825279j;
     nominal_voltage 480; 
     load_class C; 
} 

object load:438 { 
     name R2-25-00-1_load_62; 
     parent R2-25-00-1_meter_62; 
     phases ABCN; 
     voltage_A 14376.02+0.0j; 
     voltage_B -7188.01-12450j; 
     voltage_C -7188.01+12450j; 
     constant_power_A 90292.98712+21830.42657j;
     constant_power_B 83636.00319+25273.644129999997j;
     constant_power_C 86494.1211+21043.38252j;
     nominal_voltage 480; 
     load_class C; 
} 

object load:439 { 
     name R2-25-00-1_load_63; 
     parent R2-25-00-1_meter_63; 
     phases CN; 
     voltage_C -7188.01+12450j; 
     constant_power_C 19461.16746+4734.75866j;
     nominal_voltage 480; 
     load_class A; 
} 

object load:440 { 
     name R2-25-00-1_load_64; 
     parent R2-25-00-1_meter_64; 
     phases CN; 
     voltage_C -7188.01+12450j; 
     constant_power_C 19461.16746+4734.75866j;
     nominal_voltage 480; 
     load_class A; 
} 

object load:441 { 
     name R2-25-00-1_load_65; 
     parent R2-25-00-1_meter_65; 
     phases ABCN; 
     voltage_A 14376.02+0.0j; 
     voltage_B -7188.01-12450j; 
     voltage_C -7188.01+12450j; 
     constant_power_A 22618.3818+5468.51898j;
     constant_power_B 20950.808429999997+6331.044809999999j;
     constant_power_C 21666.766519999997+5271.364799999999j;
     nominal_voltage 480; 
     load_class C; 
} 

object load:442 { 
     name R2-25-00-1_load_66; 
     parent R2-25-00-1_meter_66; 
     phases ABCN; 
     voltage_A 14376.02+0.0j; 
     voltage_B -7188.01-12450j; 
     voltage_C -7188.01+12450j; 
     constant_power_A 67719.70641+16372.81159j;
     constant_power_B 62726.971000000005+18955.223599999998j;
     constant_power_C 64870.55849+15782.529059999999j;
     nominal_voltage 480; 
     load_class C; 
} 

object load:443 { 
     name R2-25-00-1_load_67; 
     parent R2-25-00-1_meter_67; 
     phases ABCN; 
     voltage_A 14376.02+0.0j; 
     voltage_B -7188.01-12450j; 
     voltage_C -7188.01+12450j; 
     constant_power_A 18058.543309999997+4366.07209j;
     constant_power_B 16727.15041+5054.713629999999j;
     constant_power_C 17298.77231+4208.66386j;
     nominal_voltage 480; 
     load_class A; 
} 

object load:444 { 
     name R2-25-00-1_load_68; 
     parent R2-25-00-1_meter_68; 
     phases ABCN; 
     voltage_A 14376.02+0.0j; 
     voltage_B -7188.01-12450j; 
     voltage_C -7188.01+12450j; 
     constant_power_A 656029.3539400001+473267.0114799999j;
     constant_power_B 653203.46547+474728.65643j;
     constant_power_C 654416.73615+472932.91147j;
     nominal_voltage 480; 
     load_class A; 
} 

object load:445 { 
     name R2-25-00-1_load_69; 
     parent R2-25-00-1_meter_69; 
     phases ABCN; 
     voltage_A 14376.02+0.0j; 
     voltage_B -7188.01-12450j; 
     voltage_C -7188.01+12450j; 
     constant_power_A 135439.41282+32745.623470000002j;
     constant_power_B 125453.94200000001+37910.447199999995j;
     constant_power_C 129741.11668999998+31565.057829999998j;
     nominal_voltage 480; 
     load_class C; 
} 

object load:446 { 
     name R2-25-00-1_load_70; 
     parent R2-25-00-1_meter_70; 
     phases ABCN; 
     voltage_A 14376.02+0.0j; 
     voltage_B -7188.01-12450j; 
     voltage_C -7188.01+12450j; 
     constant_power_A 56433.13377+13644.02063j;
     constant_power_B 52272.51768999999+15796.032329999998j;
     constant_power_C 54058.842+13152.117989999999j;
     nominal_voltage 480; 
     load_class C; 
} 

object load:447 { 
     name R2-25-00-1_load_71; 
     parent R2-25-00-1_meter_71; 
     phases CN; 
     voltage_C -7188.01+12450j; 
     constant_power_C 64870.55849+15782.529059999999j;
     nominal_voltage 480; 
     load_class A; 
} 

object load:448 { 
     name R2-25-00-1_load_72; 
     parent R2-25-00-1_meter_72; 
     phases ABCN; 
     voltage_A 14376.02+0.0j; 
     voltage_B -7188.01-12450j; 
     voltage_C -7188.01+12450j; 
     constant_power_A 759218.3818+558498.51898j;
     constant_power_B 757550.80843+559361.04481j;
     constant_power_C 758266.76652+558301.3648j;
     nominal_voltage 480; 
     load_class C; 
} 

object meter:1055 { 
     name R2-25-00-1_meter_1; 
     phases ABCN; 
     voltage_A 14376.02+0.0j; 
     voltage_B -7188.01-12450j; 
     voltage_C -7188.01+12450j; 
     nominal_voltage 480; 
} 

object meter:1056 { 
     name R2-25-00-1_meter_2; 
     phases ABCN; 
     voltage_A 14376.02+0.0j; 
     voltage_B -7188.01-12450j; 
     voltage_C -7188.01+12450j; 
     nominal_voltage 480; 
} 

object meter:1057 { 
     name R2-25-00-1_meter_3; 
     phases ABCN; 
     voltage_A 14376.02+0.0j; 
     voltage_B -7188.01-12450j; 
     voltage_C -7188.01+12450j; 
     nominal_voltage 480; 
} 

object meter:1058 { 
     name R2-25-00-1_meter_4; 
     phases ABCN; 
     voltage_A 14376.02+0.0j; 
     voltage_B -7188.01-12450j; 
     voltage_C -7188.01+12450j; 
     nominal_voltage 480; 
} 

object meter:1059 { 
     name R2-25-00-1_meter_5; 
     phases ABCN; 
     voltage_A 14376.02+0.0j; 
     voltage_B -7188.01-12450j; 
     voltage_C -7188.01+12450j; 
     nominal_voltage 480; 
} 

object meter:1060 { 
     name R2-25-00-1_meter_6; 
     phases CN; 
     voltage_C -7188.01+12450j; 
     nominal_voltage 480; 
} 

object meter:1061 { 
     name R2-25-00-1_meter_7; 
     phases ABCN; 
     voltage_A 14376.02+0.0j; 
     voltage_B -7188.01-12450j; 
     voltage_C -7188.01+12450j; 
     nominal_voltage 480; 
} 

object meter:1062 { 
     name R2-25-00-1_meter_8; 
     phases CN; 
     voltage_C -7188.01+12450j; 
     nominal_voltage 480; 
} 

object meter:1063 { 
     name R2-25-00-1_meter_9; 
     phases ABCN; 
     voltage_A 14376.02+0.0j; 
     voltage_B -7188.01-12450j; 
     voltage_C -7188.01+12450j; 
     nominal_voltage 480; 
} 

object meter:1064 { 
     name R2-25-00-1_meter_10; 
     phases CN; 
     voltage_C -7188.01+12450j; 
     nominal_voltage 480; 
} 

object meter:1065 { 
     name R2-25-00-1_meter_11; 
     phases ABCN; 
     voltage_A 14376.02+0.0j; 
     voltage_B -7188.01-12450j; 
     voltage_C -7188.01+12450j; 
     nominal_voltage 480; 
} 

object meter:1066 { 
     name R2-25-00-1_meter_12; 
     phases BN; 
     voltage_B -7188.01-12450j; 
     nominal_voltage 480; 
} 

object meter:1067 { 
     name R2-25-00-1_meter_13; 
     phases ABCN; 
     voltage_A 14376.02+0.0j; 
     voltage_B -7188.01-12450j; 
     voltage_C -7188.01+12450j; 
     nominal_voltage 480; 
} 

object meter:1068 { 
     name R2-25-00-1_meter_14; 
     phases CN; 
     voltage_C -7188.01+12450j; 
     nominal_voltage 480; 
} 

object meter:1069 { 
     name R2-25-00-1_meter_15; 
     phases ABCN; 
     voltage_A 14376.02+0.0j; 
     voltage_B -7188.01-12450j; 
     voltage_C -7188.01+12450j; 
     nominal_voltage 480; 
} 

object meter:1070 { 
     name R2-25-00-1_meter_16; 
     phases ABCN; 
     voltage_A 14376.02+0.0j; 
     voltage_B -7188.01-12450j; 
     voltage_C -7188.01+12450j; 
     nominal_voltage 480; 
} 

object meter:1071 { 
     name R2-25-00-1_meter_17; 
     phases CN; 
     voltage_C -7188.01+12450j; 
     nominal_voltage 480; 
} 

object meter:1072 { 
     name R2-25-00-1_meter_18; 
     phases ABCN; 
     voltage_A 14376.02+0.0j; 
     voltage_B -7188.01-12450j; 
     voltage_C -7188.01+12450j; 
     nominal_voltage 480; 
} 

object meter:1073 { 
     name R2-25-00-1_meter_19; 
     phases ABCN; 
     voltage_A 14376.02+0.0j; 
     voltage_B -7188.01-12450j; 
     voltage_C -7188.01+12450j; 
     nominal_voltage 480; 
} 

object meter:1074 { 
     name R2-25-00-1_meter_20; 
     phases ABCN; 
     voltage_A 14376.02+0.0j; 
     voltage_B -7188.01-12450j; 
     voltage_C -7188.01+12450j; 
     nominal_voltage 480; 
} 

object meter:1075 { 
     name R2-25-00-1_meter_21; 
     phases ABCN; 
     voltage_A 14376.02+0.0j; 
     voltage_B -7188.01-12450j; 
     voltage_C -7188.01+12450j; 
     nominal_voltage 480; 
} 

object meter:1076 { 
     name R2-25-00-1_meter_22; 
     phases CN; 
     voltage_C -7188.01+12450j; 
     nominal_voltage 480; 
} 

object meter:1077 { 
     name R2-25-00-1_meter_23; 
     phases ABCN; 
     voltage_A 14376.02+0.0j; 
     voltage_B -7188.01-12450j; 
     voltage_C -7188.01+12450j; 
     nominal_voltage 480; 
} 

object meter:1078 { 
     name R2-25-00-1_meter_24; 
     phases ABCN; 
     voltage_A 14376.02+0.0j; 
     voltage_B -7188.01-12450j; 
     voltage_C -7188.01+12450j; 
     nominal_voltage 480; 
} 

object meter:1079 { 
     name R2-25-00-1_meter_25; 
     phases ABCN; 
     voltage_A 14376.02+0.0j; 
     voltage_B -7188.01-12450j; 
     voltage_C -7188.01+12450j; 
     nominal_voltage 480; 
} 

object meter:1080 { 
     name R2-25-00-1_meter_26; 
     phases ABCN; 
     voltage_A 14376.02+0.0j; 
     voltage_B -7188.01-12450j; 
     voltage_C -7188.01+12450j; 
     nominal_voltage 480; 
} 

object meter:1081 { 
     name R2-25-00-1_meter_27; 
     phases ABCN; 
     voltage_A 14376.02+0.0j; 
     voltage_B -7188.01-12450j; 
     voltage_C -7188.01+12450j; 
     nominal_voltage 480; 
} 

object meter:1082 { 
     name R2-25-00-1_meter_28; 
     phases ABCN; 
     voltage_A 14376.02+0.0j; 
     voltage_B -7188.01-12450j; 
     voltage_C -7188.01+12450j; 
     nominal_voltage 480; 
} 

object meter:1083 { 
     name R2-25-00-1_meter_29; 
     phases CN; 
     voltage_C -7188.01+12450j; 
     nominal_voltage 480; 
} 

object meter:1084 { 
     name R2-25-00-1_meter_30; 
     phases ABCN; 
     voltage_A 14376.02+0.0j; 
     voltage_B -7188.01-12450j; 
     voltage_C -7188.01+12450j; 
     nominal_voltage 480; 
} 

object meter:1085 { 
     name R2-25-00-1_meter_31; 
     phases ABCN; 
     voltage_A 14376.02+0.0j; 
     voltage_B -7188.01-12450j; 
     voltage_C -7188.01+12450j; 
     nominal_voltage 480; 
} 

object meter:1086 { 
     name R2-25-00-1_meter_32; 
     phases AN; 
     voltage_A 14376.02+0.0j; 
     nominal_voltage 480; 
} 

object meter:1087 { 
     name R2-25-00-1_meter_33; 
     phases CN; 
     voltage_C -7188.01+12450j; 
     nominal_voltage 480; 
} 

object meter:1088 { 
     name R2-25-00-1_meter_34; 
     phases ABCN; 
     voltage_A 14376.02+0.0j; 
     voltage_B -7188.01-12450j; 
     voltage_C -7188.01+12450j; 
     nominal_voltage 480; 
} 

object meter:1089 { 
     name R2-25-00-1_meter_35; 
     phases CN; 
     voltage_C -7188.01+12450j; 
     nominal_voltage 480; 
} 

object meter:1090 { 
     name R2-25-00-1_meter_36; 
     phases ABCN; 
     voltage_A 14376.02+0.0j; 
     voltage_B -7188.01-12450j; 
     voltage_C -7188.01+12450j; 
     nominal_voltage 480; 
} 

object meter:1091 { 
     name R2-25-00-1_meter_37; 
     phases ABCN; 
     voltage_A 14376.02+0.0j; 
     voltage_B -7188.01-12450j; 
     voltage_C -7188.01+12450j; 
     nominal_voltage 480; 
} 

object meter:1092 { 
     name R2-25-00-1_meter_38; 
     phases ABCN; 
     voltage_A 14376.02+0.0j; 
     voltage_B -7188.01-12450j; 
     voltage_C -7188.01+12450j; 
     nominal_voltage 480; 
} 

object meter:1093 { 
     name R2-25-00-1_meter_39; 
     phases CN; 
     voltage_C -7188.01+12450j; 
     nominal_voltage 480; 
} 

object meter:1094 { 
     name R2-25-00-1_meter_40; 
     phases ABCN; 
     voltage_A 14376.02+0.0j; 
     voltage_B -7188.01-12450j; 
     voltage_C -7188.01+12450j; 
     nominal_voltage 480; 
} 

object meter:1095 { 
     name R2-25-00-1_meter_41; 
     phases CN; 
     voltage_C -7188.01+12450j; 
     nominal_voltage 480; 
} 

object meter:1096 { 
     name R2-25-00-1_meter_42; 
     phases CN; 
     voltage_C -7188.01+12450j; 
     nominal_voltage 480; 
} 

object meter:1097 { 
     name R2-25-00-1_meter_43; 
     phases ABCN; 
     voltage_A 14376.02+0.0j; 
     voltage_B -7188.01-12450j; 
     voltage_C -7188.01+12450j; 
     nominal_voltage 480; 
} 

object meter:1098 { 
     name R2-25-00-1_meter_44; 
     phases ABCN; 
     voltage_A 14376.02+0.0j; 
     voltage_B -7188.01-12450j; 
     voltage_C -7188.01+12450j; 
     nominal_voltage 480; 
} 

object meter:1099 { 
     name R2-25-00-1_meter_45; 
     phases ABCN; 
     voltage_A 14376.02+0.0j; 
     voltage_B -7188.01-12450j; 
     voltage_C -7188.01+12450j; 
     nominal_voltage 480; 
} 

object meter:1100 { 
     name R2-25-00-1_meter_46; 
     phases ABCN; 
     voltage_A 14376.02+0.0j; 
     voltage_B -7188.01-12450j; 
     voltage_C -7188.01+12450j; 
     nominal_voltage 480; 
} 

object meter:1101 { 
     name R2-25-00-1_meter_47; 
     phases CN; 
     voltage_C -7188.01+12450j; 
     nominal_voltage 480; 
} 

object meter:1102 { 
     name R2-25-00-1_meter_48; 
     phases ABCN; 
     voltage_A 14376.02+0.0j; 
     voltage_B -7188.01-12450j; 
     voltage_C -7188.01+12450j; 
     nominal_voltage 480; 
} 

object meter:1103 { 
     name R2-25-00-1_meter_49; 
     phases ABCN; 
     voltage_A 14376.02+0.0j; 
     voltage_B -7188.01-12450j; 
     voltage_C -7188.01+12450j; 
     nominal_voltage 480; 
} 

object meter:1104 { 
     name R2-25-00-1_meter_50; 
     phases CN; 
     voltage_C -7188.01+12450j; 
     nominal_voltage 480; 
} 

object meter:1105 { 
     name R2-25-00-1_meter_51; 
     phases ABCN; 
     voltage_A 14376.02+0.0j; 
     voltage_B -7188.01-12450j; 
     voltage_C -7188.01+12450j; 
     nominal_voltage 480; 
} 

object meter:1106 { 
     name R2-25-00-1_meter_52; 
     phases CN; 
     voltage_C -7188.01+12450j; 
     nominal_voltage 480; 
} 

object meter:1107 { 
     name R2-25-00-1_meter_53; 
     phases ABCN; 
     voltage_A 14376.02+0.0j; 
     voltage_B -7188.01-12450j; 
     voltage_C -7188.01+12450j; 
     nominal_voltage 480; 
} 

object meter:1108 { 
     name R2-25-00-1_meter_54; 
     phases ABCN; 
     voltage_A 14376.02+0.0j; 
     voltage_B -7188.01-12450j; 
     voltage_C -7188.01+12450j; 
     nominal_voltage 480; 
} 

object meter:1109 { 
     name R2-25-00-1_meter_55; 
     phases CN; 
     voltage_C -7188.01+12450j; 
     nominal_voltage 480; 
} 

object meter:1110 { 
     name R2-25-00-1_meter_56; 
     phases ABCN; 
     voltage_A 14376.02+0.0j; 
     voltage_B -7188.01-12450j; 
     voltage_C -7188.01+12450j; 
     nominal_voltage 480; 
} 

object meter:1111 { 
     name R2-25-00-1_meter_57; 
     phases CN; 
     voltage_C -7188.01+12450j; 
     nominal_voltage 480; 
} 

object meter:1112 { 
     name R2-25-00-1_meter_58; 
     phases CN; 
     voltage_C -7188.01+12450j; 
     nominal_voltage 480; 
} 

object meter:1113 { 
     name R2-25-00-1_meter_59; 
     phases ABCN; 
     voltage_A 14376.02+0.0j; 
     voltage_B -7188.01-12450j; 
     voltage_C -7188.01+12450j; 
     nominal_voltage 480; 
} 

object meter:1114 { 
     name R2-25-00-1_meter_60; 
     phases CN; 
     voltage_C -7188.01+12450j; 
     nominal_voltage 480; 
} 

object meter:1115 { 
     name R2-25-00-1_meter_61; 
     phases ABCN; 
     voltage_A 14376.02+0.0j; 
     voltage_B -7188.01-12450j; 
     voltage_C -7188.01+12450j; 
     nominal_voltage 480; 
} 

object meter:1116 { 
     name R2-25-00-1_meter_62; 
     phases ABCN; 
     voltage_A 14376.02+0.0j; 
     voltage_B -7188.01-12450j; 
     voltage_C -7188.01+12450j; 
     nominal_voltage 480; 
} 

object meter:1117 { 
     name R2-25-00-1_meter_63; 
     phases CN; 
     voltage_C -7188.01+12450j; 
     nominal_voltage 480; 
} 

object meter:1118 { 
     name R2-25-00-1_meter_64; 
     phases CN; 
     voltage_C -7188.01+12450j; 
     nominal_voltage 480; 
} 

object meter:1119 { 
     name R2-25-00-1_meter_65; 
     phases ABCN; 
     voltage_A 14376.02+0.0j; 
     voltage_B -7188.01-12450j; 
     voltage_C -7188.01+12450j; 
     nominal_voltage 480; 
} 

object meter:1120 { 
     name R2-25-00-1_meter_66; 
     phases ABCN; 
     voltage_A 14376.02+0.0j; 
     voltage_B -7188.01-12450j; 
     voltage_C -7188.01+12450j; 
     nominal_voltage 480; 
} 

object meter:1121 { 
     name R2-25-00-1_meter_67; 
     phases ABCN; 
     voltage_A 14376.02+0.0j; 
     voltage_B -7188.01-12450j; 
     voltage_C -7188.01+12450j; 
     nominal_voltage 480; 
} 

object meter:1122 { 
     name R2-25-00-1_meter_68; 
     phases ABCN; 
     voltage_A 14376.02+0.0j; 
     voltage_B -7188.01-12450j; 
     voltage_C -7188.01+12450j; 
     nominal_voltage 480; 
} 

object meter:1123 { 
     name R2-25-00-1_meter_69; 
     phases ABCN; 
     voltage_A 14376.02+0.0j; 
     voltage_B -7188.01-12450j; 
     voltage_C -7188.01+12450j; 
     nominal_voltage 480; 
} 

object meter:1124 { 
     name R2-25-00-1_meter_70; 
     phases ABCN; 
     voltage_A 14376.02+0.0j; 
     voltage_B -7188.01-12450j; 
     voltage_C -7188.01+12450j; 
     nominal_voltage 480; 
} 

object meter:1125 { 
     name R2-25-00-1_meter_71; 
     phases CN; 
     voltage_C -7188.01+12450j; 
     nominal_voltage 480; 
} 

object meter:1126 { 
     name R2-25-00-1_meter_72; 
     phases ABCN; 
     voltage_A 14376.02+0.0j; 
     voltage_B -7188.01-12450j; 
     voltage_C -7188.01+12450j; 
     nominal_voltage 480; 
} 

// Meter at feeder 
object meter:2047 { 
     name R2-25-00-1_meter_73; 
     phases ABCN; 
     nominal_voltage 14376.02; 
     voltage_A 14376.02+0.0j; 
     voltage_B -7188.01-12450j; 
     voltage_C -7188.01+12450j; 
} 

object node:54 { 
     name R2-25-00-1_node_1; 
     phases ABCN; 
     voltage_A 14376.02+0.0j; 
     voltage_B -7188.01-12450j; 
     voltage_C -7188.01+12450j; 
     nominal_voltage 14376.02; 
} 

object node:55 { 
     name R2-25-00-1_node_2; 
     phases ABCN; 
     voltage_A 14376.02+0.0j; 
     voltage_B -7188.01-12450j; 
     voltage_C -7188.01+12450j; 
     nominal_voltage 14376.02; 
} 

object node:56 { 
     name R2-25-00-1_node_3; 
     phases ABCN; 
     voltage_A 14376.02+0.0j; 
     voltage_B -7188.01-12450j; 
     voltage_C -7188.01+12450j; 
     nominal_voltage 14376.02; 
} 

object node:57 { 
     name R2-25-00-1_node_4; 
...